Network_data/8500-Node/IEEE8500u_Power_seq_kVA.txt

SYMMETRICAL COMPONENT POWERS BY CIRCUIT ELEMENT (first 3 phases)                                     Excess Power

Element                     Term    P1(kW)   Q1(kvar)       P2         Q2      P0      Q0       P_Norm      Q_Norm     P_Emerg    Q_Emerg

"Vsource.SOURCE"             1   -12047.6    -1455.2        0.0        0.0    -0.0     0.0
"Vsource.SOURCE"             2        0.0        0.0        0.0        0.0     0.0     0.0
"Line.HVMV_SUB_CONNECTOR"    1    11980.9      548.9        0.7       -1.7     0.5    -0.2     3318.1      151.5        0.0        0.0
"Line.HVMV_SUB_CONNECTOR"    2   -11980.9     -548.8       -0.7        1.7    -0.5     0.2
"Line.LN5502549-1"           1        0.0        0.0        0.0        0.0     0.0     0.0        0.0        0.0        0.0        0.0
"Line.LN5502549-1"           2        0.0        0.0        0.0        0.0     0.0     0.0
"Line.LN6259988-1"           1        0.0        0.0        0.0        0.0     0.0     0.0        0.0        0.0        0.0        0.0
"Line.LN6259988-1"           2        0.0        0.0        0.0        0.0     0.0     0.0
"Line.LN6077796-1"           1        0.0        0.0        0.0        0.0     0.0     0.0        0.0        0.0        0.0        0.0
"Line.LN6077796-1"           2        0.0        0.0        0.0        0.0     0.0     0.0
"Line.LN5835135-2"           1        0.0        0.0        0.0        0.0     0.0     0.0        0.0        0.0        0.0        0.0
"Line.LN5835135-2"           2        0.0        0.0        0.0        0.0     0.0     0.0
"Line.LN5896826-1"           1        0.0        0.0        0.0        0.0     0.0     0.0        0.0        0.0        0.0        0.0
"Line.LN5896826-1"           2        0.0        0.0        0.0        0.0     0.0     0.0
"Line.LN5714038-1"           1        0.0        0.0        0.0        0.0     0.0     0.0        0.0        0.0        0.0        0.0
"Line.LN5714038-1"           2        0.0        0.0        0.0        0.0     0.0     0.0
"Line.LN5653457-1"           1      550.5      157.3       -1.3       -5.3     5.3    -4.3        0.0        0.0        0.0        0.0
"Line.LN5653457-1"           2     -550.3     -157.3        1.3        5.3    -5.2     4.3
"Line.LN5835173-1"           1      992.7      272.6       -4.7       -3.8     7.0     0.1        0.0        0.0        0.0        0.0
"Line.LN5835173-1"           2     -992.6     -272.5        4.8        3.9    -7.0    -0.1
"Line.LN6321415-1"           1        0.0        0.0        0.0        0.0     0.0     0.0        0.0        0.0        0.0        0.0
"Line.LN6321415-1"           2        0.0        0.0        0.0        0.0     0.0     0.0
"Line.LN5565092-1"           1        0.0        0.0        0.0        0.0     0.0     0.0        0.0        0.0        0.0        0.0
"Line.LN5565092-1"           2        0.0        0.0        0.0        0.0     0.0     0.0
"Line.LN6073648-1"           1        0.0        0.0        0.0        0.0     0.0     0.0        0.0        0.0        0.0        0.0
"Line.LN6073648-1"           2        0.0        0.0        0.0        0.0     0.0     0.0
"Line.LN5774457-1"           1      546.3      146.4        2.0       -0.0    -0.9    -0.8        0.0        0.0        0.0        0.0
"Line.LN5774457-1"           2     -546.2     -146.4       -2.0        0.0     0.9     0.8
"Line.LN5534966-3"           1        0.0        0.0        0.0        0.0     0.0     0.0        0.0        0.0        0.0        0.0
"Line.LN5534966-3"           2        0.0        0.0        0.0        0.0     0.0     0.0
"Line.LN5859996-1"           1        0.0        0.0        0.0        0.0     0.0     0.0        0.0        0.0        0.0        0.0
"Line.LN5859996-1"           2        0.0        0.0        0.0        0.0     0.0     0.0
"Line.LN6138610-2"           1     2256.6      609.1        6.5        4.0    -3.5     0.7        0.0        0.0        0.0        0.0
"Line.LN6138610-2"           2    -2255.2     -608.6       -6.5       -4.0     3.5    -0.7
"Line.LN6258435-3"           1        0.0        0.0        0.0        0.0     0.0     0.0        0.0        0.0        0.0        0.0
"Line.LN6258435-3"           2        0.0        0.0        0.0        0.0     0.0     0.0
"Line.LN5804790-1"           1        0.0        0.0        0.0        0.0     0.0     0.0        0.0        0.0        0.0        0.0
"Line.LN5804790-1"           2        0.0        0.0        0.0        0.0     0.0     0.0
"Line.LN6900591-14"          1        0.0        0.0        0.0        0.0     0.0     0.0        0.0        0.0        0.0        0.0
"Line.LN6900591-14"          2        0.0        0.0        0.0        0.0     0.0     0.0
"Line.LN6409873-1"           1        0.0        0.0        0.0        0.0     0.0     0.0        0.0        0.0        0.0        0.0
"Line.LN6409873-1"           2        0.0        0.0        0.0        0.0     0.0     0.0
"Line.LN6014135-1"           1        0.0        0.0        0.0        0.0     0.0     0.0        0.0        0.0        0.0        0.0
"Line.LN6014135-1"           2        0.0        0.0        0.0        0.0     0.0     0.0
"Line.LN6077784-1"           1     1207.2      335.2        1.8       -5.1     3.6    -5.2        0.0        0.0        0.0        0.0
"Line.LN6077784-1"           2    -1206.9     -335.0       -1.8        5.1    -3.6     5.2
"Line.LN5744338-1"           1        0.0        0.0        0.0        0.0     0.0     0.0        0.0        0.0        0.0        0.0
"Line.LN5744338-1"           2        0.0        0.0        0.0        0.0     0.0     0.0
"Line.LN6991381-4"           1        0.0        0.0        0.0        0.0     0.0     0.0        0.0        0.0        0.0        0.0
"Line.LN6991381-4"           2        0.0        0.0        0.0        0.0     0.0     0.0
"Line.LN5774480-1"           1        0.0        0.0        0.0        0.0     0.0     0.0        0.0        0.0        0.0        0.0
"Line.LN5774480-1"           2        0.0        0.0        0.0        0.0     0.0     0.0
"Line.LN5986938-3"           1        0.0        0.0        0.0        0.0     0.0     0.0        0.0        0.0        0.0        0.0
"Line.LN5986938-3"           2        0.0        0.0        0.0        0.0     0.0     0.0
"Line.LN5894230-1"           1        0.0        0.0        0.0        0.0     0.0     0.0        0.0        0.0        0.0        0.0
"Line.LN5894230-1"           2        0.0        0.0        0.0        0.0     0.0     0.0
"Line.LN5683858-3"           1       68.6       18.7       -0.1       -0.2     0.5    -0.0        0.0        0.0        0.0        0.0
"Line.LN5683858-3"           2      -68.6      -18.7        0.1        0.2    -0.5     0.0
"Line.LN5920279-5"           1     6364.8      844.1       -9.8      -17.7   -14.9   -27.3        0.0        0.0        0.0        0.0
"Line.LN5920279-5"           2    -6363.9     -841.9        9.9       17.8    15.0    27.4
"Line.LN6439600-1"           1        0.0        0.0        0.0        0.0     0.0     0.0        0.0        0.0        0.0        0.0
"Line.LN6439600-1"           2        0.0        0.0        0.0        0.0     0.0     0.0
"Line.LN5589097-1"           1        0.0        0.0        0.0        0.0     0.0     0.0        0.0        0.0        0.0        0.0
"Line.LN5589097-1"           2        0.0        0.0        0.0        0.0     0.0     0.0
"Line.LN5651975-1"           1      785.8      205.8        8.2        5.1    -8.6    -1.1        0.0        0.0        0.0        0.0
"Line.LN5651975-1"           2     -785.5     -205.8       -8.2       -5.1     8.7     1.1
"Line.LN5865236-1"           1        0.0        0.0        0.0        0.0     0.0     0.0        0.0        0.0        0.0        0.0
"Line.LN5865236-1"           2        0.0        0.0        0.0        0.0     0.0     0.0
"Line.LN5593232-1"           1        0.0        0.0        0.0        0.0     0.0     0.0        0.0        0.0        0.0        0.0
"Line.LN5593232-1"           2        0.0        0.0        0.0        0.0     0.0     0.0
"Line.LN5740283-1"           1        0.0        0.0        0.0        0.0     0.0     0.0        0.0        0.0        0.0        0.0
"Line.LN5740283-1"           2        0.0        0.0        0.0        0.0     0.0     0.0
"Line.LN6106559-1"           1        0.0        0.0        0.0        0.0     0.0     0.0        0.0        0.0        0.0        0.0
"Line.LN6106559-1"           2        0.0        0.0        0.0        0.0     0.0     0.0
"Line.LN5714056-3"           1      628.4      165.3        6.4        3.7    -8.5    -2.2        0.0        0.0        0.0        0.0
"Line.LN5714056-3"           2     -627.8     -165.2       -6.3       -3.7     8.6     2.3
"Line.LN5985355-3"           1        0.0        0.0        0.0        0.0     0.0     0.0        0.0        0.0        0.0        0.0
"Line.LN5985355-3"           2        0.0        0.0        0.0        0.0     0.0     0.0
"Line.LN5531956-1"           1        0.0        0.0        0.0        0.0     0.0     0.0        0.0        0.0        0.0        0.0
"Line.LN5531956-1"           2        0.0        0.0        0.0        0.0     0.0     0.0
"Line.LN5650048-1"           1        0.0        0.0        0.0        0.0     0.0     0.0        0.0        0.0        0.0        0.0
"Line.LN5650048-1"           2        0.0        0.0        0.0        0.0     0.0     0.0
"Line.LN6290203-1"           1      820.0      225.6       -4.5       -3.9     6.2    -0.5        0.0        0.0        0.0        0.0
"Line.LN6290203-1"           2     -819.8     -225.4        4.5        3.9    -6.1     0.6
"Line.LN6134414-1"           1        0.0        0.0        0.0        0.0     0.0     0.0        0.0        0.0        0.0        0.0
"Line.LN6134414-1"           2        0.0        0.0        0.0        0.0     0.0     0.0
"Line.LN6259998-2"           1        0.0        0.0        0.0        0.0     0.0     0.0        0.0        0.0        0.0        0.0
"Line.LN6259998-2"           2        0.0        0.0        0.0        0.0     0.0     0.0
"Line.LN6078767-1"           1     2828.2     -153.3        1.4        3.0     5.1     1.4        0.0        0.0        0.0        0.0
"Line.LN6078767-1"           2    -2828.0      153.8       -1.4       -3.0    -5.1    -1.4
"Line.LN6017300-1"           1        0.0        0.0        0.0        0.0     0.0     0.0        0.0        0.0        0.0        0.0
"Line.LN6017300-1"           2        0.0        0.0        0.0        0.0     0.0     0.0
"Line.LN8979257-2"           1       29.4        7.8        0.0        0.0     0.0    -0.0        0.0        0.0        0.0        0.0
"Line.LN8979257-2"           2      -29.4       -7.8       -0.0       -0.0    -0.0     0.0
"Line.LN81048109-1"          1        0.0        0.0        0.0        0.0     0.0     0.0        0.0        0.0        0.0        0.0
"Line.LN81048109-1"          2        0.0        0.0        0.0        0.0     0.0     0.0
"Line.293471"                1       29.3        7.9       -0.0        0.0     0.0    -0.0        0.0        0.0        0.0        0.0
"Line.293471"                2      -29.3       -7.9        0.0       -0.0    -0.0     0.0
"Line.LN5534965-2"           1        0.0        0.0        0.0        0.0     0.0     0.0        0.0        0.0        0.0        0.0
"Line.LN5534965-2"           2        0.0        0.0        0.0        0.0     0.0     0.0
"Line.LN5655683-1"           1        0.0        0.0        0.0        0.0     0.0     0.0        0.0        0.0        0.0        0.0
"Line.LN5655683-1"           2        0.0        0.0        0.0        0.0     0.0     0.0
"Line.LN5686247-1"           1        0.0        0.0        0.0        0.0     0.0     0.0        0.0        0.0        0.0        0.0
"Line.LN5686247-1"           2        0.0        0.0        0.0        0.0     0.0     0.0
"Line.LN6048642-1"           1        0.0        0.0        0.0        0.0     0.0     0.0        0.0        0.0        0.0        0.0
"Line.LN6048642-1"           2        0.0        0.0        0.0        0.0     0.0     0.0
"Line.LN5928544-3"           1        0.0        0.0        0.0        0.0     0.0     0.0        0.0        0.0        0.0        0.0
"Line.LN5928544-3"           2        0.0        0.0        0.0        0.0     0.0     0.0
"Line.LN6108172-1"           1        0.0        0.0        0.0        0.0     0.0     0.0        0.0        0.0        0.0        0.0
"Line.LN6108172-1"           2        0.0        0.0        0.0        0.0     0.0     0.0
"Line.LN5532754-1"           1      709.4      187.5        7.5        3.8    -8.2    -2.2        0.0        0.0        0.0        0.0
"Line.LN5532754-1"           2     -709.3     -187.4       -7.5       -3.8     8.2     2.2
"Line.LN5591834-1"           1        0.0        0.0        0.0        0.0     0.0     0.0        0.0        0.0        0.0        0.0
"Line.LN5591834-1"           2        0.0        0.0        0.0        0.0     0.0     0.0
"Line.LN6347196-2"           1      454.6      116.0        1.7        3.0    -3.6     1.4        0.0        0.0        0.0        0.0
"Line.LN6347196-2"           2     -454.6     -116.0       -1.7       -3.0     3.6    -1.4
"Line.LN5532741-1"           1        0.0        0.0        0.0        0.0     0.0     0.0        0.0        0.0        0.0        0.0
"Line.LN5532741-1"           2        0.0        0.0        0.0        0.0     0.0     0.0
"Line.LN5804803-1"           1        0.0        0.0        0.0        0.0     0.0     0.0        0.0        0.0        0.0        0.0
"Line.LN5804803-1"           2        0.0        0.0        0.0        0.0     0.0     0.0
"Line.LN6169248-1"           1     1649.9      464.1       13.6       -4.2    -6.9   -10.5        0.0        0.0        0.0        0.0
"Line.LN6169248-1"           2    -1649.1     -463.4      -13.5        4.3     7.0    10.7
"Line.LN5532786-2"           1        0.0        0.0        0.0        0.0     0.0     0.0        0.0        0.0        0.0        0.0
"Line.LN5532786-2"           2        0.0        0.0        0.0        0.0     0.0     0.0
"Line.LN5744339-1"           1        0.0        0.0        0.0        0.0     0.0     0.0        0.0        0.0        0.0        0.0
"Line.LN5744339-1"           2        0.0        0.0        0.0        0.0     0.0     0.0
"Line.LN5531255-3"           1        0.0        0.0        0.0        0.0     0.0     0.0        0.0        0.0        0.0        0.0
"Line.LN5531255-3"           2        0.0        0.0        0.0        0.0     0.0     0.0
"Line.LN5926308-2"           1      768.6      208.9       -0.8       -1.7    -1.6    -2.1        0.0        0.0        0.0        0.0
"Line.LN5926308-2"           2     -768.4     -208.9        0.8        1.7     1.7     2.1
"Line.LN5683856-3"           1        0.0        0.0        0.0        0.0     0.0     0.0        0.0        0.0        0.0        0.0
"Line.LN5683856-3"           2        0.0        0.0        0.0        0.0     0.0     0.0
"Line.LN6171502-1"           1        0.0        0.0        0.0        0.0     0.0     0.0        0.0        0.0        0.0        0.0
"Line.LN6171502-1"           2        0.0        0.0        0.0        0.0     0.0     0.0
"Line.LN5593228-1"           1        0.0        0.0        0.0        0.0     0.0     0.0        0.0        0.0        0.0        0.0
"Line.LN5593228-1"           2        0.0        0.0        0.0        0.0     0.0     0.0
"Line.LN6380800-1"           1        0.0        0.0        0.0        0.0     0.0     0.0        0.0        0.0        0.0        0.0
"Line.LN6380800-1"           2        0.0        0.0        0.0        0.0     0.0     0.0
"Line.LN6199525-2"           1        0.0        0.0        0.0        0.0     0.0     0.0        0.0        0.0        0.0        0.0
"Line.LN6199525-2"           2        0.0        0.0        0.0        0.0     0.0     0.0
"Line.LN5772710-2"           1        0.0        0.0        0.0        0.0     0.0     0.0        0.0        0.0        0.0        0.0
"Line.LN5772710-2"           2        0.0        0.0        0.0        0.0     0.0     0.0
"Line.LN8961760-1"           1        0.0        0.0        0.0        0.0     0.0     0.0        0.0        0.0        0.0        0.0
"Line.LN8961760-1"           2        0.0        0.0        0.0        0.0     0.0     0.0
"Line.LN6047556-1"           1        0.0        0.0        0.0        0.0     0.0     0.0        0.0        0.0        0.0        0.0
"Line.LN6047556-1"           2        0.0        0.0        0.0        0.0     0.0     0.0
"Line.LN6138603-1"           1        0.0        0.0        0.0        0.0     0.0     0.0        0.0        0.0        0.0        0.0
"Line.LN6138603-1"           2        0.0        0.0        0.0        0.0     0.0     0.0
"Line.LN6108139-1"           1        0.0        0.0        0.0        0.0     0.0     0.0        0.0        0.0        0.0        0.0
"Line.LN6108139-1"           2        0.0        0.0        0.0        0.0     0.0     0.0
"Line.LN6388581-2"           1        0.0        0.0        0.0        0.0     0.0     0.0        0.0        0.0        0.0        0.0
"Line.LN6388581-2"           2        0.0        0.0        0.0        0.0     0.0     0.0
"Line.LN5774460-1"           1        0.0        0.0        0.0        0.0     0.0     0.0        0.0        0.0        0.0        0.0
"Line.LN5774460-1"           2        0.0        0.0        0.0        0.0     0.0     0.0
"Line.LN5624387-1"           1        0.0        0.0        0.0        0.0     0.0     0.0        0.0        0.0        0.0        0.0
"Line.LN5624387-1"           2        0.0        0.0        0.0        0.0     0.0     0.0
"Line.LN6137087-1"           1        0.0        0.0        0.0        0.0     0.0     0.0        0.0        0.0        0.0        0.0
"Line.LN6137087-1"           2        0.0        0.0        0.0        0.0     0.0     0.0
"Line.LN6077809-1"           1        0.0        0.0        0.0        0.0     0.0     0.0        0.0        0.0        0.0        0.0
"Line.LN6077809-1"           2        0.0        0.0        0.0        0.0     0.0     0.0
"Line.LN6440079-1"           1        0.0        0.0        0.0        0.0     0.0     0.0        0.0        0.0        0.0        0.0
"Line.LN6440079-1"           2        0.0        0.0        0.0        0.0     0.0     0.0
"Line.LN5804794-1"           1        0.0        0.0        0.0        0.0     0.0     0.0        0.0        0.0        0.0        0.0
"Line.LN5804794-1"           2        0.0        0.0        0.0        0.0     0.0     0.0
"Line.LN5654484-1"           1        0.0        0.0        0.0        0.0     0.0     0.0        0.0        0.0        0.0        0.0
"Line.LN5654484-1"           2        0.0        0.0        0.0        0.0     0.0     0.0
"Line.LN5774465-1"           1        0.0        0.0        0.0        0.0     0.0     0.0        0.0        0.0        0.0        0.0
"Line.LN5774465-1"           2        0.0        0.0        0.0        0.0     0.0     0.0
"Line.LN5473349-1"           1     6038.8      680.8        9.8      -13.0     2.9   -16.0        0.0        0.0        0.0        0.0
"Line.LN5473349-1"           2    -6038.0     -678.8       -9.8       13.1    -2.9    16.1
"Line.LN6169253-1"           1        0.0        0.0        0.0        0.0     0.0     0.0        0.0        0.0        0.0        0.0
"Line.LN6169253-1"           2        0.0        0.0        0.0        0.0     0.0     0.0
"Line.LN6350536-1"           1        0.0        0.0        0.0        0.0     0.0     0.0        0.0        0.0        0.0        0.0
"Line.LN6350536-1"           2        0.0        0.0        0.0        0.0     0.0     0.0
"Line.LN6048523-1"           1        0.0        0.0        0.0        0.0     0.0     0.0        0.0        0.0        0.0        0.0
"Line.LN6048523-1"           2        0.0        0.0        0.0        0.0     0.0     0.0
"Line.LN5594152-1"           1        0.0        0.0        0.0        0.0     0.0     0.0        0.0        0.0        0.0        0.0
"Line.LN5594152-1"           2        0.0        0.0        0.0        0.0     0.0     0.0
"Line.LN5865248-1"           1      834.5      226.7       -0.4       -2.0    -2.1    -1.9        0.0        0.0        0.0        0.0
"Line.LN5865248-1"           2     -834.2     -226.6        0.5        2.0     2.1     1.9
"Line.LN6046143-1"           1        0.0        0.0        0.0        0.0     0.0     0.0        0.0        0.0        0.0        0.0
"Line.LN6046143-1"           2        0.0        0.0        0.0        0.0     0.0     0.0
"Line.LN5803287-1"           1        0.0        0.0        0.0        0.0     0.0     0.0        0.0        0.0        0.0        0.0
"Line.LN5803287-1"           2        0.0        0.0        0.0        0.0     0.0     0.0
"Line.LN5589094-1"           1        0.0        0.0        0.0        0.0     0.0     0.0        0.0        0.0        0.0        0.0
"Line.LN5589094-1"           2        0.0        0.0        0.0        0.0     0.0     0.0
"Line.LN5954983-1"           1        0.0        0.0        0.0        0.0     0.0     0.0        0.0        0.0        0.0        0.0
"Line.LN5954983-1"           2        0.0        0.0        0.0        0.0     0.0     0.0
"Line.LN5924696-2"           1        0.0        0.0        0.0        0.0     0.0     0.0        0.0        0.0        0.0        0.0
"Line.LN5924696-2"           2        0.0        0.0        0.0        0.0     0.0     0.0
"Line.LN6506311-4"           1        6.0        1.4        0.1        0.1     0.1     0.2        0.0        0.0        0.0        0.0
"Line.LN6506311-4"           2       -6.0       -1.4       -0.1       -0.1    -0.1    -0.2
"Line.LN5653493-1"           1        0.0        0.0        0.0        0.0     0.0     0.0        0.0        0.0        0.0        0.0
"Line.LN5653493-1"           2        0.0        0.0        0.0        0.0     0.0     0.0
"Line.LN5684836-1"           1     6169.0      739.8      -11.0      -16.3   -10.7   -29.9        0.0        0.0        0.0        0.0
"Line.LN5684836-1"           2    -6166.3     -733.4       11.1       16.5    10.9    30.2
"Line.LN5715016-3"           1        0.0        0.0        0.0        0.0     0.0     0.0        0.0        0.0        0.0        0.0
"Line.LN5715016-3"           2        0.0        0.0        0.0        0.0     0.0     0.0
"Line.LN6138614-1"           1      886.0     -691.0       -0.1       -1.9    -1.8    -1.5        0.0        0.0        0.0        0.0
"Line.LN6138614-1"           2     -885.2      691.2        0.2        1.9     1.8     1.6
"Line.LN6077781-2"           1     5024.4     1405.0       16.1       -5.7     0.1    -9.8        0.0        0.0        0.0        0.0
"Line.LN6077781-2"           2    -5014.8    -1396.0      -16.0        5.8    -0.0     9.9
"Line.LN5675121-1"           1        0.0        0.0        0.0        0.0     0.0     0.0        0.0        0.0        0.0        0.0
"Line.LN5675121-1"           2        0.0        0.0        0.0        0.0     0.0     0.0
"Line.LN5773046-1"           1        0.0        0.0        0.0        0.0     0.0     0.0        0.0        0.0        0.0        0.0
"Line.LN5773046-1"           2        0.0        0.0        0.0        0.0     0.0     0.0
"Line.LN6380809-2"           1      727.1      221.6       -2.2      -13.8     8.6    -9.7        0.0        0.0        0.0        0.0
"Line.LN6380809-2"           2     -727.0     -221.5        2.3       13.8    -8.6     9.7
"Line.LN6018326-1"           1        0.0        0.0        0.0        0.0     0.0     0.0        0.0        0.0        0.0        0.0
"Line.LN6018326-1"           2        0.0        0.0        0.0        0.0     0.0     0.0
"Line.LN5472356-1"           1        0.0        0.0        0.0        0.0     0.0     0.0        0.0        0.0        0.0        0.0
"Line.LN5472356-1"           2        0.0        0.0        0.0        0.0     0.0     0.0
"Line.LN6139641-1"           1     7490.3     1368.4       -7.5      -12.1    -9.0   -16.7        0.9        0.2        0.0        0.0
"Line.LN6139641-1"           2    -7488.2    -1363.2        7.6       12.2     9.1    17.0
"Line.LN6018341-1"           1     2658.3     -211.4        1.9        2.8     4.9     1.3        0.0        0.0        0.0        0.0
"Line.LN6018341-1"           2    -2657.6      212.9       -1.9       -2.8    -4.8    -1.2
"Line.LN6017302-1"           1      296.3       84.8       -3.5       -0.9    -0.5    -5.4        0.0        0.0        0.0        0.0
"Line.LN6017302-1"           2     -296.2      -84.8        3.5        0.9     0.5     5.5
"Line.LN6199505-1"           1        0.0        0.0        0.0        0.0     0.0     0.0        0.0        0.0        0.0        0.0
"Line.LN6199505-1"           2        0.0        0.0        0.0        0.0     0.0     0.0
"Line.LN5682327-1"           1        0.0        0.0        0.0        0.0     0.0     0.0        0.0        0.0        0.0        0.0
"Line.LN5682327-1"           2        0.0        0.0        0.0        0.0     0.0     0.0
"Line.LN6290243-1"           1        0.0        0.0        0.0        0.0     0.0     0.0        0.0        0.0        0.0        0.0
"Line.LN6290243-1"           2        0.0        0.0        0.0        0.0     0.0     0.0
"Line.X8223_48332_SW"        1     1389.8     -552.6        0.8       -2.4    -1.0    -2.0        0.0        0.0        0.0        0.0
"Line.X8223_48332_SW"        2    -1389.8      552.6       -0.8        2.4     1.0     2.0
"Line.LN6413567-3"           1     1390.1     -552.5        0.9       -2.4    -1.0    -2.0        0.0        0.0        0.0        0.0
"Line.LN6413567-3"           2    -1389.8      552.6       -0.8        2.4     1.0     2.0
"Line.LN5591731-3"           1     6410.5      872.4       -9.2      -17.7   -15.4   -25.9        0.0        0.0        0.0        0.0
"Line.LN5591731-3"           2    -6410.4     -872.2        9.2       17.7    15.4    25.9
"Line.LN5653470-1"           1       29.2        7.8       -0.0        0.0     0.1     0.0        0.0        0.0        0.0        0.0
"Line.LN5653470-1"           2      -29.2       -7.8        0.0       -0.0    -0.1    -0.0
"Line.LN6017316-1"           1        0.0        0.0        0.0        0.0     0.0     0.0        0.0        0.0        0.0        0.0
"Line.LN6017316-1"           2        0.0        0.0        0.0        0.0     0.0     0.0
"Line.LN5926299-1"           1        0.0        0.0        0.0        0.0     0.0     0.0        0.0        0.0        0.0        0.0
"Line.LN5926299-1"           2        0.0        0.0        0.0        0.0     0.0     0.0
"Line.LN5683831-1"           1      866.1      234.7       -0.3       -1.7    -1.7    -1.6        0.0        0.0        0.0        0.0
"Line.LN5683831-1"           2     -865.6     -234.6        0.4        1.7     1.7     1.6
"Line.LN6352700-1"           1        0.0        0.0        0.0        0.0     0.0     0.0        0.0        0.0        0.0        0.0
"Line.LN6352700-1"           2        0.0        0.0        0.0        0.0     0.0     0.0
"Line.LN6047570-1"           1        0.0        0.0        0.0        0.0     0.0     0.0        0.0        0.0        0.0        0.0
"Line.LN6047570-1"           2        0.0        0.0        0.0        0.0     0.0     0.0
"Line.LN5624342-1"           1     6210.4      767.1      -11.2      -16.0   -10.2   -30.0        0.0        0.0        0.0        0.0
"Line.LN5624342-1"           2    -6208.2     -761.8       11.3       16.1    10.3    30.3
"Line.LN6259992-1"           1        0.0        0.0        0.0        0.0     0.0     0.0        0.0        0.0        0.0        0.0
"Line.LN6259992-1"           2        0.0        0.0        0.0        0.0     0.0     0.0
"Line.LN5841919-1"           1        0.0        0.0        0.0        0.0     0.0     0.0        0.0        0.0        0.0        0.0
"Line.LN5841919-1"           2        0.0        0.0        0.0        0.0     0.0     0.0
"Line.LN6380811-1"           1        0.0        0.0        0.0        0.0     0.0     0.0        0.0        0.0        0.0        0.0
"Line.LN6380811-1"           2        0.0        0.0        0.0        0.0     0.0     0.0
"Line.LN5683832-1"           1        0.0        0.0        0.0        0.0     0.0     0.0        0.0        0.0        0.0        0.0
"Line.LN5683832-1"           2        0.0        0.0        0.0        0.0     0.0     0.0
"Line.LN6077778-1"           1        0.0        0.0        0.0        0.0     0.0     0.0        0.0        0.0        0.0        0.0
"Line.LN6077778-1"           2        0.0        0.0        0.0        0.0     0.0     0.0
"Line.LN5561442-2"           1     7407.4     1276.7       -9.2      -14.1   -11.0   -21.8        0.0        0.0        0.0        0.0
"Line.LN5561442-2"           2    -7404.4    -1269.5        9.3       14.3    11.1    22.2
"Line.LN6259983-1"           1        0.0        0.0        0.0        0.0     0.0     0.0        0.0        0.0        0.0        0.0
"Line.LN6259983-1"           2        0.0        0.0        0.0        0.0     0.0     0.0
"Line.LN5865244-1"           1        0.0        0.0        0.0        0.0     0.0     0.0        0.0        0.0        0.0        0.0
"Line.LN5865244-1"           2        0.0        0.0        0.0        0.0     0.0     0.0
"Line.LN6350555-1"           1        0.0        0.0        0.0        0.0     0.0     0.0        0.0        0.0        0.0        0.0
"Line.LN6350555-1"           2        0.0        0.0        0.0        0.0     0.0     0.0
"Line.LN5714039-1"           1        0.0        0.0        0.0        0.0     0.0     0.0        0.0        0.0        0.0        0.0
...