Network_data/8500-Node/IEEE8500u_VLN.Txt

SYMMETRICAL COMPONENT VOLTAGES BY BUS (for 3-phase buses)

Bus                   Mag:   V1 (kV)    p.u.     V2 (kV)   %V2/V1    V0 (kV)    %V0/V1

sourcebus                69.72       1.05  3.31E-006  4.748E-006 4.535E-009 6.505E-009
_hvmv_sub_lsb             7.55      1.049    0.02078     0.2753  0.009771    0.1294
hvmv_sub_48332            7.55      1.049    0.02078     0.2753  0.009771    0.1294
m1009763                  7.29      1.013     0.2261      3.102    0.2759     3.785
l2673322                 7.299      1.014          0          0         0         0
m1069148                 7.415       1.03          0          0         0         0
l2673309                 7.415       1.03          0          0         0         0
m1069588                 7.252      1.007          0          0         0         0
l2804270                 7.252      1.007          0          0         0         0
m3036164                 7.167     0.9955          0          0         0         0
l2935553                 7.165     0.9953          0          0         0         0
m1209749                 7.376      1.024          0          0         0         0
l2748840                 7.375      1.024          0          0         0         0
m1108264                 7.416       1.03          0          0         0         0
m1108263                 7.415       1.03          0          0         0         0
l3085398                 7.324      1.017     0.2275      3.106    0.2685     3.666
m1026891                 7.321      1.017      0.228      3.115    0.2682     3.664
l3216367                 7.316      1.016      0.234      3.199    0.1997     2.729
m1069468                 7.315      1.016     0.2342      3.202    0.1992     2.724
m1142800                 7.197     0.9996          0          0         0         0
m1142799                 7.197     0.9996          0          0         0         0
m1047592                 7.403      1.028     0.2303      3.112    0.2369     3.201
p827512                  7.408      1.029          0          0         0         0
m1047339                 7.298      1.014    0.06778     0.9286   0.09825     1.346
p895104                  7.266      1.009          0          0         0         0
m1026915                 7.324      1.017     0.2265      3.092    0.2693     3.677
m1026920                 7.323      1.017     0.2261      3.088    0.2697     3.683
n1138596                 7.332      1.018          0          0         0         0
l3254207                 7.332      1.018          0          0         0         0
m1069464                 7.312      1.016     0.2347      3.209    0.1984     2.713
p873787                  7.299      1.014          0          0         0         0
n1144665                 7.413       1.03     0.2302      3.106    0.2247     3.031
m1047515                 7.409      1.029     0.2297      3.101    0.2249     3.036
n1137002                  7.39      1.026          0          0         0         0
m1047707                 7.389      1.026          0          0         0         0
l2729406                  7.26      1.008          0          0         0         0
l2897768                  7.26      1.008          0          0         0         0
l3649301                 7.367      1.023          0          0         0         0
l3649302                 7.367      1.023          0          0         0         0
l2970842                 7.438      1.033          0          0         0         0
m1089113                 7.437      1.033          0          0         0         0
m1047312                 7.272       1.01    0.07274          1    0.1088     1.496
p893163                  7.231      1.004          0          0         0         0
l2822871                 7.351      1.021     0.2253      3.065    0.2638     3.589
m1026872                 7.349      1.021     0.2254      3.067    0.2642     3.596
m1026312                 7.021     0.9752          0          0         0         0
l2973163                 7.018     0.9748          0          0         0         0
l3728038                 7.356      1.022          0          0         0         0
l3728039                 7.356      1.022          0          0         0         0
m1069567                 7.265      1.009          0          0         0         0
m1069582                 7.256      1.008          0          0         0         0
n1140830                  7.22      1.003          0          0         0         0
l3216351                  7.22      1.003          0          0         0         0
l2952007                 7.378      1.025          0          0         0         0
l2861158                 7.377      1.025          0          0         0         0
n1140827                 7.287      1.012     0.1914      2.627    0.2692     3.694
m1026726                 7.286      1.012     0.1914      2.627    0.2692     3.694
l2730106                 7.106      0.987     0.1468      2.066    0.2862     4.028
n1142099                 7.104     0.9868     0.1473      2.073    0.2875     4.046
m1026658                  7.28      1.011     0.1892      2.598      0.27     3.708
l3172805                 7.218      1.003          0          0         0         0
p895112                  7.123     0.9894          0          0         0         0
l3048962                 7.123     0.9894          0          0         0         0
l2991914                 7.371      1.024     0.2236      3.034    0.2297     3.116
m1047503                 7.369      1.023     0.2228      3.024    0.2306      3.13
m1047751                 7.346       1.02          0          0         0         0
l2973154                 7.346       1.02          0          0         0         0
l3010565                 7.412       1.03          0          0         0         0
l2897775                 7.412      1.029          0          0         0         0
m1125955                 7.457      1.036          0          0         0         0
m1125957                 7.457      1.036          0          0         0         0
m1069640                 7.228      1.004          0          0         0         0
l2804269                 7.227      1.004          0          0         0         0
m1026702                 7.302      1.014     0.1964      2.689    0.2637     3.611
n1139551                 7.296      1.013     0.1938      2.656    0.2671     3.661
n1136355                 7.306      1.015          0          0         0         0
l2783231                 7.298      1.014          0          0         0         0
l2748143                 7.223      1.003          0          0         0         0
l3251854                 7.223      1.003          0          0         0         0
m1069610                 7.239      1.005          0          0         0         0
m1069600                 7.239      1.005          0          0         0         0
m1069424                 7.296      1.013     0.2381      3.263    0.1923     2.635
l2935549                 7.294      1.013     0.2386      3.271    0.1916     2.626
p895089                  7.504      1.042          0          0         0         0
l3235242                 7.503      1.042          0          0         0         0
m1026795                 7.348      1.021     0.2148      2.923    0.2404     3.271
n1140522                 7.332      1.018          0          0         0         0
l3030199                 7.269       1.01    0.07966      1.096    0.1115     1.534
m1125934                 7.268       1.01    0.07957      1.095    0.1112      1.53
m1069189                 7.413       1.03    0.04774     0.6439    0.0383    0.5166
l2860487                 7.431      1.032          0          0         0         0
221-312488               7.116     0.9883     0.1393      1.957    0.2622     3.685
m1089183                 7.116     0.9883     0.1393      1.957    0.2622     3.685
m1108464                 7.042     0.9781          0          0         0         0
l3102286                 7.041      0.978          0          0         0         0
f739845                  7.255      1.008    0.07734      1.066    0.1154      1.59
293471                   7.255      1.008    0.07734      1.066    0.1154      1.59
p827499                  7.339      1.019          0          0         0         0
n1139254                 7.339      1.019          0          0         0         0
m1026657                 7.215      1.002          0          0         0         0
m1026656                 7.215      1.002          0          0         0         0
m1108299                 7.165     0.9953          0          0         0         0
m1108300                 7.165     0.9953          0          0         0         0
l3198355                 7.165     0.9952          0          0         0         0
l2805037                 7.165     0.9952          0          0         0         0
n1137994                 7.316      1.016          0          0         0         0
m1069484                 7.315      1.016          0          0         0         0
l2860504                 7.221      1.003          0          0         0         0
l2860493                  7.22      1.003          0          0         0         0
m1026783                 7.342       1.02     0.2123      2.892    0.2435     3.316
m1026780                 7.341       1.02     0.2119      2.887     0.244     3.323
p895111                   7.46      1.036          0          0         0         0
l2895496                  7.46      1.036          0          0         0         0
n1140819                  7.29      1.013     0.1922      2.637    0.2685     3.683
m1026700                 7.289      1.012      0.192      2.635    0.2686     3.685
m1089173                 7.263      1.009          0          0         0         0
l2935551                 7.262      1.009          0          0         0         0
m1026344                 7.168     0.9957          0          0         0         0
m1026364                 7.168     0.9956          0          0         0         0
l2879070                 7.396      1.027     0.2292      3.099     0.241     3.258
l3216345                 7.392      1.027     0.2285      3.091     0.244     3.301
m1069428                 7.298      1.014     0.2377      3.257    0.1928     2.642
n1139257                 7.272       1.01          0          0         0         0
l2991919                 7.164     0.9951          0          0         0         0
m1026361                 7.162     0.9948          0          0         0         0
n1147857                 7.233      1.005          0          0         0         0
m1009742                 7.232      1.004          0          0         0         0
q14412                   7.291      1.013    0.06905     0.9471    0.1011     1.387
m1047325                 7.289      1.012     0.0694     0.9521    0.1019     1.398
n1139263                  7.35      1.021          0          0         0         0
l3048227                  7.35      1.021          0          0         0         0
p827506                   7.35      1.021          0          0         0         0
m1069469                  7.35      1.021          0          0         0         0
m1027019                 7.307      1.015          0          0         0         0
l2785522                 7.307      1.015          0          0         0         0
l3216338                 7.248      1.007          0          0         0         0
l2973146                 7.248      1.007          0          0         0         0
m3037452                 7.154     0.9937          0          0         0         0
l2973164                 7.154     0.9937          0          0         0         0
l3120376                 7.324      1.017          0          0         0         0
m1026925                 7.322      1.017          0          0         0         0
m1047612                 7.416       1.03          0          0         0         0
p828360                  7.416       1.03          0          0         0         0
m1089195                 7.503      1.042          0          0         0         0
l3141393                 7.503      1.042          0          0         0         0
m1026946                 7.324      1.017          0          0         0         0
m1026940                 7.323      1.017          0          0         0         0
m1047471                 7.126     0.9898          0          0         0         0
l3216349                 7.126     0.9898          0          0         0         0
m1047401                 7.165     0.9951          0          0         0         0
l2748132                 7.164     0.9951          0          0         0         0
l3122820                 7.194     0.9992          0          0         0         0
l3141398                 7.194     0.9992          0          0         0         0
m1108360                 7.337      1.019          0          0         0         0
l3048968                 7.337      1.019          0          0         0         0
l2801950                 7.392      1.027          0          0         0         0
m1069224                 7.392      1.027          0          0         0         0
l2766746                 7.295      1.013          0          0         0         0
m1027073                 7.293      1.013          0          0         0         0
m1142873                 7.459      1.036          0          0         0         0
m1069181                 7.382      1.025          0          0         0         0
l2973151                  7.38      1.025          0          0         0         0
l3179682                 7.419       1.03          0          0         0         0
l2786274                 7.419       1.03          0          0         0         0
l3066816                 7.219      1.003          0          0         0         0
m1026667                 7.219      1.003          0          0         0         0
m1108529                 7.448      1.035     0.1494      2.006    0.1726     2.317
m1108532                 7.447      1.034     0.1495      2.008    0.1736     2.332
l2766723                  7.22      1.003          0          0         0         0
l3122822                  7.22      1.003          0          0         0         0
l2673312                 7.222      1.003          0          0         0         0
l3235247                 7.222      1.003          0          0         0         0
m1166391                 7.393      1.027          0          0         0         0
l3254873                 7.389      1.026          0          0         0         0
l2861157                 7.432      1.032          0          0         0         0
p901951                  7.428      1.032          0          0         0         0
m1047346                 7.309      1.015    0.06625     0.9064    0.0939     1.285
m1047345                 7.306      1.015     0.0666     0.9115   0.09503     1.301
l2989596                 7.274       1.01          0          0         0         0
l2822873                 7.274       1.01          0          0         0         0
m1108328                 7.395      1.027          0          0         0         0
l2875754                 7.395      1.027          0          0         0         0
l2786204                 7.494      1.041          0          0         0         0
m1209819                  7.49       1.04          0          0         0         0
p901972                  7.231      1.004          0          0         0         0
m1009726                 7.229      1.004          0          0         0         0
m1047702                  7.39      1.026          0          0         0         0
n1137001                  7.39      1.026          0          0         0         0
l2767340                 7.154     0.9937     0.1279      1.788    0.2397     3.351
m3037449                 7.154     0.9937     0.1279      1.788    0.2397     3.351
m1047457                 7.134      0.991          0          0         0         0
l2710546                 7.134     0.9908          0          0         0         0
l2674027                 7.072     0.9823     0.1595      2.256    0.3179     4.495
l2692633                 7.068     0.9817     0.1609      2.277    0.3214     4.548
n1142108                 7.169     0.9958          0          0         0         0
l2674051                 7.169     0.9958          0          0         0         0
m1069135                 7.326      1.018    0.06427     0.8773   0.08703     1.188
r18242                   7.323      1.017    0.06473      0.884   0.08875     1.212
m1047534                 7.481      1.039     0.2362      3.157    0.2166     2.895
n1136663                 7.465      1.037      0.235      3.148    0.2195     2.941
m1108508                   7.5      1.042          0          0         0         0
l3097861                   7.5      1.042          0          0         0         0
m1069560                  7.27       1.01          0          0         0         0
l2973153                  7.39      1.026       0.24      3.248    0.2261      3.06
n1136998                 7.389      1.026     0.2402      3.251    0.2261      3.06
l2898515                 7.486       1.04          0          0         0         0
m1166387                 7.486       1.04          0          0         0         0
m1047442                 7.165     0.9952          0          0         0         0
l3235250                 7.165     0.9951          0          0         0         0
m1142871                 7.246      1.006    0.09598      1.325    0.1576     2.174
m1142874                 7.243      1.006    0.09694      1.338      0.16     2.208
l2955081                 7.255      1.008    0.07729      1.065    0.1019     1.404
m1108315                 7.253      1.007      0.077      1.062    0.1008     1.389
l2973162                 7.219      1.003    0.09365      1.297    0.1424     1.972
m1026333                 7.218      1.003    0.09472      1.312    0.1437     1.991
m1009832                 7.256      1.008          0          0         0         0
l2860479                 7.256      1.008          0          0         0         0
m1026854                 7.369      1.024     0.2255      3.061    0.2574     3.493
p901894                  7.339      1.019          0          0         0         0
m1026485                  7.18     0.9973          0          0         0         0
m1026492                  7.18     0.9973          0          0         0         0
d6413567-3_int           7.401      1.028    0.04747     0.6414   0.04453    0.6017
e182724                  7.401      1.028    0.04748     0.6415   0.04456     0.602
n1139541                 7.402      1.028    0.04748     0.6414   0.04389    0.5929
m4122658                 7.117     0.9885     0.1426      2.004    0.2761      3.88
l2933135                 7.117     0.9885     0.1427      2.005    0.2762     3.882
l2729414                 7.302      1.014     0.1964      2.689    0.2637     3.611
l2729430                 7.293      1.013          0          0         0         0
l2766742                 7.286      1.012          0          0         0         0
m1026972                 7.169     0.9957          0          0         0         0
l2860483                 7.169     0.9957          0          0         0         0
l2860490                 7.316      1.016    0.06544     0.8945   0.09133     1.248
l3104134                 7.312      1.016     0.0659     0.9014   0.09279     1.269
m1089144                 7.031     0.9765          0          0         0         0
p827522                  7.031     0.9765          0          0         0         0
m1089118                 7.451      1.035     0.0478     0.6416   0.03469    0.4655
l3048208                 7.464      1.037          0          0         0         0
m1108505                 7.082     0.9837     0.1558      2.199    0.3083     4.353
l2955047                 7.079     0.9833     0.1569      2.216    0.3112     4.396
m1089148                 7.028     0.9761          0          0         0         0
l2766721                 7.028     0.9761          0          0         0         0
m1026745                 7.123     0.9893          0          0         0         0
l3029183                 7.123     0.9893          0          0         0         0
l2710512                  7.14     0.9917          0          0         0         0
m1047828                 7.135     0.9911          0          0         0         0
m1047342                 7.275      1.011          0          0         0         0
l3197645                 7.275      1.011          0          0         0         0
m1069192                 7.387      1.026          0          0         0         0
l3235253                 7.386      1.026          0          0         0         0
l3214071                 7.202          1     0.1108      1.539    0.1954     2.713
m1125952                 7.198     0.9998     0.1122      1.559    0.1989     2.763
m1027101                 7.136     0.9912          0          0         0         0
l2860480                 7.136     0.9912          0          0         0         0
l2710517                 7.196     0.9995          0          0         0         0
m1026646                 7.195     0.9993          0          0         0         0
m1069662                 7.227      1.004          0          0         0         0
l2935547                 7.227      1.004          0          0         0         0
m1026931                 7.317      1.016          0          0         0         0
l3216336                 7.317      1.016          0          0         0         0
l3142049                 7.099      0.986     0.1494      2.105    0.2926     4.122
m1108493                 7.094     0.9853     0.1513      2.133    0.2974     4.192
m1069169                 7.393      1.027    0.04754     0.6431   0.04861    0.6575
l3010556                 7.388      1.026    0.04837     0.6547   0.05108    0.6915
l2991933                 7.364      1.023          0          0         0         0
l3122837                 7.363      1.023          0          0         0         0
l2691936                 7.316      1.016          0          0         0         0
l2897772                 7.225      1.004          0          0         0         0
l3101814                 7.225      1.004          0          0         0         0
l2766732                 7.181     0.9974          0          0         0         0
l2989564                 7.227      1.004          0          0         0         0
m1126016                 6.764     0.9396          0          0         0         0
l3120534                 6.764     0.9395          0          0         0         0
m1026330                 7.216      1.002    0.09683      1.342    0.1463     2.028
l2766726                 7.068     0.9817          0          0         0         0
p901912                  7.394      1.027          0          0         0         0
l3195365                 7.394      1.027          0          0         0         0
m1108381                 7.119     0.9888     0.1392      1.955     0.262      3.68
l3254237                 7.118     0.9887     0.1392      1.955    0.2622     3.683
l2804262                 7.336      1.019          0          0         0         0
l2841639                 7.334      1.019          0          0         0         0
n1230123                 7.055     0.9799          0          0         0         0
l2708744                 7.053     0.9796          0          0         0         0
m1069519                 7.346       1.02     0.1669      2.272    0.2654     3.613
p901927                  7.315      1.016          0          0         0         0
l2897790                 7.517      1.044          0          0         0         0
l2935566                 7.517      1.044          0          0         0         0
l3216337                 7.317      1.016          0          0         0         0
p901931                  7.517      1.044          0          0         0         0
m1069548                 7.517      1.044          0          0         0         0
m1010013                 7.145     0.9925          0          0         0         0
l3120503                 7.145     0.9924          0          0         0         0
m1089145                 7.119     0.9889    0.08809      1.237    0.1154     1.621
l3215385                 7.119     0.9889    0.08809      1.237    0.1154     1.621
m1026852                 7.364      1.023     0.2253       3.06    0.2595     3.524
m1069420                 7.292      1.013     0.2391      3.279    0.1908     2.616
l3157708                 7.376      1.025          0          0         0         0
n1137991                 7.376      1.025          0          0         0         0
m1108413                  6.87     0.9542          0          0         0         0
m1108460                 6.868     0.9539          0          0         0         0
p827532                  7.254      1.008          0          0         0         0
m1047326                 7.254      1.008          0          0         0         0
e182732                  7.323      1.017     0.2048      2.796    0.2531     3.456
m1026760                 7.323      1.017     0.2046      2.794    0.2533     3.459
l3048205                 7.326      1.018          0          0         0         0
m1108361                 7.313      1.016          0          0         0         0
m3036169                 7.199          1          0          0         0         0
l2673317                 7.199     0.9999          0          0         0         0
l3178981                 7.239      1.006          0          0         0         0
m1047368                 7.227      1.004          0          0         0         0
n1136354                 7.345       1.02     0.1679      2.286    0.2674     3.641
l2879794                 7.164     0.9951          0          0         0         0
m1142811                 7.164      0.995          0          0         0         0
m1069565                 7.274       1.01          0          0         0         0
l2785536                 7.274       1.01          0          0         0         0
l3104114                 7.271       1.01          0          0         0         0
m1009824                 7.268       1.01          0          0         0         0
l2745848                 7.324      1.017     0.2323      3.172    0.2025     2.765
l2673308                 7.322      1.017     0.2327      3.178    0.2019     2.757
l2991939                 7.319      1.017     0.2334       3.19    0.2007     2.742
l2916606                 7.346       1.02          0          0         0         0
l2822864                 7.346       1.02          0          0         0         0
m1142851                 7.279      1.011    0.08526      1.171     0.131     1.799
196-31070                7.278      1.011     0.0856      1.176    0.1318     1.811
m1209822                 7.451      1.035          0          0         0         0
m1209823                 7.448      1.035          0          0         0         0
m1069550                 7.278      1.011          0          0         0         0
m1069551                 7.278      1.011          0          0         0         0
l3141397                 7.168     0.9957          0          0         0         0
l3649299                 7.368      1.023          0          0         0         0
m3772794                 7.368      1.023          0          0         0         0
p895106                  7.103     0.9866          0          0         0         0
l3048887                 7.103     0.9865          0          0         0         0
m1047824                 7.143     0.9921          0          0         0         0
m1047834                 7.138     0.9915          0          0         0         0
m1069350                 7.273       1.01     0.2421      3.328    0.1777     2.443
n1144668                 7.273       1.01      0.242      3.328    0.1771     2.436
l2879072                 7.182     0.9975          0          0         0         0
m1047441                 7.167     0.9955          0          0         0         0
m1108274                 7.419      1.031          0          0         0         0
m1108269                 7.419      1.031          0          0         0         0
l3235244                 7.327      1.018          0          0         0         0
m1069398                 7.327      1.018          0          0         0         0
n1147862                 7.267      1.009          0          0         0         0
l2685805                 7.266      1.009          0          0         0         0
m1069247                 7.336      1.019          0          0         0         0
m1069248                 7.336      1.019          0          0         0         0
l2786273                 7.419       1.03          0          0         0         0
m1108278                 7.418       1.03          0          0         0         0
l3254238                  7.26      1.008    0.07603      1.047    0.1134     1.562
m1047303                 7.255      1.008    0.07734      1.066    0.1154      1.59
m1047633                 7.414       1.03          0          0         0         0
l2897554                 7.413       1.03          0          0         0         0
m1069627                 7.225      1.004          0          0         0         0
l2897791                 7.224      1.003          0          0         0         0
m1089097                 7.423      1.031          0          0         0         0
...