Network_data/8500-Node/IEEE8500u_VLN_elem.Txt

NODE-GROUND VOLTAGES BY CIRCUIT ELEMENT

Power Delivery Elements

Bus                  (node ref)  Phase    Magnitude, kV (pu)    Angle

ELEMENT = "Vsource.SOURCE"
SOURCEBUS             (  1)    1           69.715 (    1.05) /_    0.0
SOURCEBUS             (  2)    2           69.715 (    1.05) /_ -120.0
SOURCEBUS             (  3)    3           69.715 (    1.05) /_  120.0
------------
SOURCEBUS             (  0)    0                0 (       0) /_    0.0
SOURCEBUS             (  0)    0                0 (       0) /_    0.0
SOURCEBUS             (  0)    0                0 (       0) /_    0.0

ELEMENT = "Line.HVMV_SUB_CONNECTOR"
_HVMV_SUB_LSB         (  4)    1            7.552 (   1.049) /_  -34.5
_HVMV_SUB_LSB         (  5)    2           7.5389 (   1.047) /_ -154.3
_HVMV_SUB_LSB         (  6)    3           7.5591 (    1.05) /_   85.9
------------
HVMV_SUB_48332        (  7)    1            7.552 (   1.049) /_  -34.5
HVMV_SUB_48332        (  8)    2           7.5389 (   1.047) /_ -154.3
HVMV_SUB_48332        (  9)    3           7.5591 (    1.05) /_   85.9

ELEMENT = "Line.LN5502549-1"
M1009763              ( 10)    2           7.3004 (   1.014) /_ -167.2
------------
L2673322              ( 11)    2           7.3003 (   1.014) /_ -167.2

ELEMENT = "Line.LN6259988-1"
M1069148              ( 12)    3            7.415 (    1.03) /_   80.4
------------
L2673309              ( 13)    3           7.4148 (    1.03) /_   80.4

ELEMENT = "Line.LN6077796-1"
M1069588              ( 14)    2            7.253 (   1.007) /_ -165.4
------------
L2804270              ( 15)    2            7.253 (   1.007) /_ -165.4

ELEMENT = "Line.LN5835135-2"
M3036164              ( 16)    2           7.1686 (  0.9957) /_ -167.0
------------
L2935553              ( 17)    2           7.1671 (  0.9955) /_ -167.0

ELEMENT = "Line.LN5896826-1"
M1209749              ( 18)    2            7.376 (   1.025) /_ -156.5
------------
L2748840              ( 19)    2           7.3758 (   1.024) /_ -156.5

ELEMENT = "Line.LN5714038-1"
M1108264              ( 20)    2           7.4166 (    1.03) /_ -160.5
------------
M1108263              ( 21)    2           7.4161 (    1.03) /_ -160.5

ELEMENT = "Line.LN5653457-1"
L3085398              ( 22)    1           7.2789 (   1.011) /_  -44.9
L3085398              ( 23)    2           7.3443 (    1.02) /_ -167.1
L3085398              ( 24)    3           7.3743 (   1.024) /_   79.5
------------
M1026891              ( 25)    1           7.2756 (   1.011) /_  -44.9
M1026891              ( 26)    2            7.338 (   1.019) /_ -167.1
M1026891              ( 27)    3           7.3732 (   1.024) /_   79.5

ELEMENT = "Line.LN5835173-1"
L3216367              ( 28)    1           7.3492 (   1.021) /_  -44.4
L3216367              ( 29)    2            7.307 (   1.015) /_ -166.7
L3216367              ( 30)    3           7.3105 (   1.015) /_   79.2
------------
M1069468              ( 31)    1           7.3486 (   1.021) /_  -44.4
M1069468              ( 32)    2           7.3047 (   1.015) /_ -166.7
M1069468              ( 33)    3           7.3097 (   1.015) /_   79.1

ELEMENT = "Line.LN6321415-1"
M1142800              ( 34)    2           7.1974 (  0.9997) /_ -159.0
------------
M1142799              ( 35)    2           7.1973 (  0.9997) /_ -159.0

ELEMENT = "Line.LN5565092-1"
M1047592              ( 36)    3            7.408 (   1.029) /_   79.6
------------
P827512               ( 37)    3            7.408 (   1.029) /_   79.6

ELEMENT = "Line.LN6073648-1"
M1047339              ( 38)    1           7.2649 (   1.009) /_  -40.8
------------
P895104               ( 39)    1           7.2649 (   1.009) /_  -40.8

ELEMENT = "Line.LN5774457-1"
M1026915              ( 40)    1           7.2773 (   1.011) /_  -44.9
M1026915              ( 41)    2           7.3466 (    1.02) /_ -167.1
M1026915              ( 42)    3           7.3733 (   1.024) /_   79.5
------------
M1026920              ( 43)    1           7.2752 (   1.011) /_  -44.9
M1026920              ( 44)    2           7.3456 (    1.02) /_ -167.1
M1026920              ( 45)    3           7.3723 (   1.024) /_   79.5

ELEMENT = "Line.LN5534966-3"
N1138596              ( 46)    1            7.331 (   1.018) /_  -44.3
------------
L3254207              ( 47)    1           7.3305 (   1.018) /_  -44.3

ELEMENT = "Line.LN5859996-1"
M1069464              ( 48)    2           7.3007 (   1.014) /_ -166.7
------------
P873787               ( 49)    2           7.3007 (   1.014) /_ -166.7

ELEMENT = "Line.LN6138610-2"
N1144665              ( 50)    1           7.4225 (   1.031) /_  -44.4
N1144665              ( 51)    2           7.4379 (   1.033) /_ -166.4
N1144665              ( 52)    3           7.4002 (   1.028) /_   79.6
------------
M1047515              ( 53)    1           7.4171 (    1.03) /_  -44.4
M1047515              ( 54)    2            7.434 (   1.033) /_ -166.4
M1047515              ( 55)    3           7.3954 (   1.027) /_   79.6

ELEMENT = "Line.LN6258435-3"
N1137002              ( 56)    1           7.3884 (   1.026) /_  -44.3
------------
M1047707              ( 57)    1           7.3881 (   1.026) /_  -44.3

ELEMENT = "Line.LN5804790-1"
L2729406              ( 58)    3           7.2601 (   1.008) /_   81.3
------------
L2897768              ( 59)    3           7.2595 (   1.008) /_   81.3

ELEMENT = "Line.LN6900591-14"
L3649301              ( 60)    1           7.3658 (   1.023) /_  -44.7
------------
L3649302              ( 61)    1           7.3655 (   1.023) /_  -44.7

ELEMENT = "Line.LN6409873-1"
L2970842              ( 62)    2            7.439 (   1.033) /_ -160.5
------------
M1089113              ( 63)    2           7.4376 (   1.033) /_ -160.5

ELEMENT = "Line.LN6014135-1"
M1047312              ( 64)    1           7.2309 (   1.004) /_  -40.8
------------
P893163               ( 65)    1           7.2308 (   1.004) /_  -40.8

ELEMENT = "Line.LN6077784-1"
L2822871              ( 66)    1            7.311 (   1.015) /_  -44.8
L2822871              ( 67)    2           7.3815 (   1.025) /_ -166.9
L2822871              ( 68)    3            7.384 (   1.026) /_   79.5
------------
M1026872              ( 69)    1           7.3083 (   1.015) /_  -44.8
M1026872              ( 70)    2           7.3787 (   1.025) /_ -166.9
M1026872              ( 71)    3           7.3831 (   1.025) /_   79.5

ELEMENT = "Line.LN5744338-1"
M1026312              ( 72)    2           7.0221 (  0.9754) /_ -162.0
------------
L2973163              ( 73)    2           7.0194 (   0.975) /_ -162.0

ELEMENT = "Line.LN6991381-4"
L3728038              ( 74)    1            7.355 (   1.022) /_  -44.5
------------
L3728039              ( 75)    1           7.3544 (   1.022) /_  -44.5

ELEMENT = "Line.LN5774480-1"
M1069567              ( 76)    2            7.266 (   1.009) /_ -165.4
------------
M1069582              ( 77)    2           7.2569 (   1.008) /_ -165.4

ELEMENT = "Line.LN5986938-3"
N1140830              ( 78)    1            7.219 (   1.003) /_  -44.7
------------
L3216351              ( 79)    1           7.2189 (   1.003) /_  -44.7

ELEMENT = "Line.LN5894230-1"
L2952007              ( 80)    3           7.3777 (   1.025) /_   84.7
------------
L2861158              ( 81)    3           7.3774 (   1.025) /_   84.7

ELEMENT = "Line.LN5683858-3"
N1140827              ( 82)    1           7.2243 (   1.003) /_  -44.7
N1140827              ( 83)    2           7.3921 (   1.027) /_ -166.3
N1140827              ( 84)    3           7.2646 (   1.009) /_   79.7
------------
M1026726              ( 85)    1           7.2242 (   1.003) /_  -44.7
M1026726              ( 86)    2            7.392 (   1.027) /_ -166.3
M1026726              ( 87)    3           7.2645 (   1.009) /_   79.7

ELEMENT = "Line.LN5920279-5"
L2730106              ( 88)    1           6.8247 (  0.9479) /_  -41.0
L2730106              ( 89)    2            7.046 (  0.9787) /_ -162.1
L2730106              ( 90)    3           7.4542 (   1.035) /_   81.5
------------
N1142099              ( 91)    1           6.8221 (  0.9476) /_  -41.0
N1142099              ( 92)    2           7.0447 (  0.9785) /_ -162.1
N1142099              ( 93)    3           7.4541 (   1.035) /_   81.5

ELEMENT = "Line.LN6439600-1"
M1026658              ( 94)    1           7.2173 (   1.002) /_  -44.7
------------
L3172805              ( 95)    1           7.2171 (   1.002) /_  -44.7

ELEMENT = "Line.LN5589097-1"
P895112               ( 96)    1           7.1228 (  0.9893) /_  -38.7
------------
L3048962              ( 97)    1           7.1227 (  0.9893) /_  -38.7

ELEMENT = "Line.LN5651975-1"
L2991914              ( 98)    1           7.3699 (   1.024) /_  -44.4
L2991914              ( 99)    2           7.4068 (   1.029) /_ -166.4
L2991914              (100)    3           7.3563 (   1.022) /_   79.6
------------
M1047503              (101)    1           7.3662 (   1.023) /_  -44.4
M1047503              (102)    2           7.4065 (   1.029) /_ -166.4
M1047503              (103)    3            7.354 (   1.021) /_   79.6

ELEMENT = "Line.LN5865236-1"
M1047751              (104)    1           7.3453 (    1.02) /_  -44.1
------------
L2973154              (105)    1           7.3452 (    1.02) /_  -44.1

ELEMENT = "Line.LN5593232-1"
L3010565              (106)    3           7.4119 (   1.029) /_   80.4
------------
L2897775              (107)    3           7.4116 (   1.029) /_   80.4

ELEMENT = "Line.LN5740283-1"
M1125955              (108)    3           7.4565 (   1.036) /_   82.0
------------
M1125957              (109)    3           7.4565 (   1.036) /_   82.0

ELEMENT = "Line.LN6106559-1"
M1069640              (110)    2           7.2294 (   1.004) /_ -165.4
------------
L2804269              (111)    2           7.2286 (   1.004) /_ -165.4

ELEMENT = "Line.LN5714056-3"
M1026702              (112)    1           7.2481 (   1.007) /_  -44.6
M1026702              (113)    2            7.396 (   1.027) /_ -166.3
M1026702              (114)    3           7.2836 (   1.012) /_   79.7
------------
N1139551              (115)    1           7.2368 (   1.005) /_  -44.6
N1139551              (116)    2           7.3954 (   1.027) /_ -166.3
N1139551              (117)    3           7.2771 (   1.011) /_   79.7

ELEMENT = "Line.LN5985355-3"
N1136355              (118)    2           7.3068 (   1.015) /_ -165.3
------------
L2783231              (119)    2           7.2995 (   1.014) /_ -165.3

ELEMENT = "Line.LN5531956-1"
L2748143              (120)    1            7.222 (   1.003) /_  -43.1
------------
L3251854              (121)    1           7.2219 (   1.003) /_  -43.1

ELEMENT = "Line.LN5650048-1"
M1069610              (122)    2           7.2404 (   1.006) /_ -165.4
------------
M1069600              (123)    2           7.2403 (   1.006) /_ -165.4

ELEMENT = "Line.LN6290203-1"
M1069424              (124)    1           7.3397 (   1.019) /_  -44.4
M1069424              (125)    2             7.27 (    1.01) /_ -166.8
M1069424              (126)    3           7.2977 (   1.014) /_   79.0
------------
L2935549              (127)    1           7.3386 (   1.019) /_  -44.4
L2935549              (128)    2           7.2659 (   1.009) /_ -166.8
L2935549              (129)    3           7.2964 (   1.013) /_   79.0

ELEMENT = "Line.LN6134414-1"
P895089               (130)    3           7.5033 (   1.042) /_   80.5
------------
L3235242              (131)    3           7.5031 (   1.042) /_   80.5

ELEMENT = "Line.LN6259998-2"
M1026795              (132)    3           7.3316 (   1.018) /_   79.6
------------
N1140522              (133)    3           7.3316 (   1.018) /_   79.6

ELEMENT = "Line.LN6078767-1"
L3030199              (134)    1           7.1679 (  0.9956) /_  -38.7
L3030199              (135)    2           7.1988 (  0.9999) /_ -159.1
L3030199              (136)    3            7.441 (   1.034) /_   82.1
------------
M1125934              (137)    1           7.1679 (  0.9956) /_  -38.7
M1125934              (138)    2           7.1978 (  0.9998) /_ -159.1
M1125934              (139)    3           7.4403 (   1.033) /_   82.1

ELEMENT = "Line.LN6017300-1"
M1069189              (140)    3           7.4306 (   1.032) /_   80.4
------------
L2860487              (141)    3           7.4305 (   1.032) /_   80.4

ELEMENT = "Line.LN8979257-2"
221-312488            (142)    1           6.8614 (   0.953) /_  -40.5
221-312488            (143)    2           7.0452 (  0.9786) /_ -161.5
221-312488            (144)    3           7.4463 (   1.034) /_   81.7
------------
M1089183              (145)    1           6.8613 (   0.953) /_  -40.5
M1089183              (146)    2           7.0452 (  0.9786) /_ -161.5
M1089183              (147)    3           7.4463 (   1.034) /_   81.7

ELEMENT = "Line.LN81048109-1"
M1108464              (148)    2           7.0428 (  0.9782) /_ -161.6
------------
L3102286              (149)    2           7.0423 (  0.9782) /_ -161.6

ELEMENT = "Line.293471"
F739845               (150)    1           7.2138 (   1.002) /_  -40.8
F739845               (151)    2           7.1493 (   0.993) /_ -161.8
F739845               (152)    3           7.4047 (   1.028) /_   79.9
------------
293471                (153)    1           7.2137 (   1.002) /_  -40.8
293471                (154)    2           7.1492 (   0.993) /_ -161.8
293471                (155)    3           7.4046 (   1.028) /_   79.9

ELEMENT = "Line.LN5534965-2"
P827499               (156)    1           7.3375 (   1.019) /_  -44.4
------------
N1139254              (157)    1           7.3375 (   1.019) /_  -44.4

ELEMENT = "Line.LN5655683-1"
M1026657              (158)    1           7.2137 (   1.002) /_  -44.7
------------
M1026656              (159)    1           7.2134 (   1.002) /_  -44.7

ELEMENT = "Line.LN5686247-1"
M1108299              (160)    2           7.1662 (  0.9954) /_ -159.4
------------
M1108300              (161)    2           7.1661 (  0.9954) /_ -159.4

ELEMENT = "Line.LN6048642-1"
L3198355              (162)    2           7.1658 (  0.9953) /_ -159.4
------------
L2805037              (163)    2           7.1658 (  0.9953) /_ -159.4

ELEMENT = "Line.LN5928544-3"
N1137994              (164)    3           7.3157 (   1.016) /_   79.2
------------
M1069484              (165)    3           7.3142 (   1.016) /_   79.2

ELEMENT = "Line.LN6108172-1"
L2860504              (166)    1             7.22 (   1.003) /_  -44.7
------------
L2860493              (167)    1           7.2193 (   1.003) /_  -44.7

ELEMENT = "Line.LN5532754-1"
M1026783              (168)    1           7.3198 (   1.017) /_  -44.5
M1026783              (169)    2           7.4029 (   1.028) /_ -166.3
M1026783              (170)    3           7.3255 (   1.017) /_   79.6
------------
M1026780              (171)    1           7.3181 (   1.016) /_  -44.5
M1026780              (172)    2           7.4027 (   1.028) /_ -166.3
M1026780              (173)    3           7.3245 (   1.017) /_   79.6

ELEMENT = "Line.LN5591834-1"
P895111               (174)    3           7.4598 (   1.036) /_   82.3
------------
L2895496              (175)    3           7.4595 (   1.036) /_   82.3

ELEMENT = "Line.LN6347196-2"
N1140819              (176)    1           7.2286 (   1.004) /_  -44.6
N1140819              (177)    2           7.3932 (   1.027) /_ -166.3
N1140819              (178)    3           7.2691 (    1.01) /_   79.7
------------
M1026700              (179)    1           7.2275 (   1.004) /_  -44.6
M1026700              (180)    2           7.3928 (   1.027) /_ -166.3
M1026700              (181)    3           7.2679 (   1.009) /_   79.7

ELEMENT = "Line.LN5532741-1"
M1089173              (182)    3           7.2629 (   1.009) /_   81.3
------------
L2935551              (183)    3           7.2619 (   1.009) /_   81.3

ELEMENT = "Line.LN5804803-1"
M1026344              (184)    1           7.1677 (  0.9956) /_  -40.7
------------
M1026364              (185)    1           7.1674 (  0.9955) /_  -40.7

ELEMENT = "Line.LN6169248-1"
L2879070              (186)    1           7.3854 (   1.026) /_  -44.6
L2879070              (187)    2           7.4204 (   1.031) /_ -166.6
L2879070              (188)    3           7.4043 (   1.028) /_   79.6
------------
L3216345              (189)    1           7.3773 (   1.025) /_  -44.6
L3216345              (190)    2           7.4178 (    1.03) /_ -166.7
L3216345              (191)    3           7.4023 (   1.028) /_   79.6

ELEMENT = "Line.LN5532786-2"
M1069428              (192)    2           7.2736 (    1.01) /_ -166.8
------------
N1139257              (193)    2           7.2735 (    1.01) /_ -166.8

ELEMENT = "Line.LN5744339-1"
L2991919              (194)    1           7.1637 (   0.995) /_  -40.7
------------
M1026361              (195)    1           7.1611 (  0.9947) /_  -40.7

ELEMENT = "Line.LN5531255-3"
N1147857              (196)    1           7.2323 (   1.005) /_  -44.9
------------
M1009742              (197)    1           7.2306 (   1.004) /_  -44.9

ELEMENT = "Line.LN5926308-2"
Q14412                (198)    1           7.2557 (   1.008) /_  -40.8
Q14412                (199)    2            7.203 (       1) /_ -161.7
Q14412                (200)    3            7.417 (    1.03) /_   79.9
------------
M1047325              (201)    1           7.2531 (   1.007) /_  -40.8
M1047325              (202)    2           7.2003 (       1) /_ -161.7
M1047325              (203)    3           7.4163 (    1.03) /_   79.9

ELEMENT = "Line.LN5683856-3"
N1139263              (204)    1           7.3485 (   1.021) /_  -44.4
------------
L3048227              (205)    1           7.3484 (   1.021) /_  -44.4

ELEMENT = "Line.LN6171502-1"
P827506               (206)    1           7.3486 (   1.021) /_  -44.4
------------
M1069469              (207)    1           7.3485 (   1.021) /_  -44.4

ELEMENT = "Line.LN5593228-1"
M1027019              (208)    2           7.3088 (   1.015) /_ -167.1
------------
L2785522              (209)    2           7.3087 (   1.015) /_ -167.1

ELEMENT = "Line.LN6380800-1"
L3216338              (210)    2           7.2495 (   1.007) /_ -167.3
------------
L2973146              (211)    2           7.2494 (   1.007) /_ -167.3

ELEMENT = "Line.LN6199525-2"
M3037452              (212)    1           7.1536 (  0.9936) /_  -40.7
------------
L2973164              (213)    1           7.1536 (  0.9936) /_  -40.7

ELEMENT = "Line.LN5772710-2"
L3120376              (214)    1           7.3225 (   1.017) /_  -44.8
------------
M1026925              (215)    1           7.3208 (   1.017) /_  -44.8

ELEMENT = "Line.LN8961760-1"
M1047612              (216)    3            7.416 (    1.03) /_   79.6
------------
P828360               (217)    3           7.4159 (    1.03) /_   79.6

ELEMENT = "Line.LN6047556-1"
M1089195              (218)    3           7.5028 (   1.042) /_   80.5
------------
L3141393              (219)    3           7.5026 (   1.042) /_   80.5

ELEMENT = "Line.LN6138603-1"
M1026946              (220)    2           7.3253 (   1.017) /_ -167.1
------------
M1026940              (221)    2           7.3248 (   1.017) /_ -167.1

ELEMENT = "Line.LN6108139-1"
M1047471              (222)    2           7.1282 (  0.9901) /_ -167.2
------------
L3216349              (223)    2           7.1282 (  0.9901) /_ -167.2

ELEMENT = "Line.LN6388581-2"
M1047401              (224)    1           7.1634 (   0.995) /_  -44.8
------------
L2748132              (225)    1           7.1633 (   0.995) /_  -44.8

ELEMENT = "Line.LN5774460-1"
L3122820              (226)    1           7.1929 (  0.9991) /_  -44.7
------------
L3141398              (227)    1           7.1928 (  0.9991) /_  -44.7

ELEMENT = "Line.LN5624387-1"
M1108360              (228)    3           7.3366 (   1.019) /_   81.4
------------
L3048968              (229)    3           7.3364 (   1.019) /_   81.4

ELEMENT = "Line.LN6137087-1"
L2801950              (230)    3           7.3922 (   1.027) /_   80.4
------------
M1069224              (231)    3           7.3916 (   1.027) /_   80.4

ELEMENT = "Line.LN6077809-1"
L2766746              (232)    3           7.2948 (   1.013) /_   79.4
------------
M1027073              (233)    3           7.2927 (   1.013) /_   79.3

ELEMENT = "Line.LN6440079-1"
L2895496              (175)    3           7.4595 (   1.036) /_   82.3
------------
M1142873              (234)    3           7.4592 (   1.036) /_   82.3

ELEMENT = "Line.LN5804794-1"
M1069181              (235)    1           7.3812 (   1.025) /_  -40.3
------------
L2973151              (236)    1           7.3796 (   1.025) /_  -40.3

ELEMENT = "Line.LN5654484-1"
L3179682              (237)    3           7.4189 (    1.03) /_   81.6
------------
L2786274              (238)    3           7.4189 (    1.03) /_   81.6

ELEMENT = "Line.LN5774465-1"
L3066816              (239)    1            7.218 (   1.003) /_  -44.7
------------
M1026667              (240)    1           7.2176 (   1.003) /_  -44.7

ELEMENT = "Line.LN5473349-1"
M1108529              (241)    1           7.4164 (    1.03) /_  -41.7
M1108529              (242)    2           7.4385 (   1.033) /_ -163.0
M1108529              (243)    3           7.4993 (   1.042) /_   81.1
------------
M1108532              (244)    1            7.414 (    1.03) /_  -41.7
M1108532              (245)    2            7.437 (   1.033) /_ -163.0
M1108532              (246)    3           7.4994 (   1.042) /_   81.1

ELEMENT = "Line.LN6169253-1"
L2766723              (247)    1           7.2191 (   1.003) /_  -44.7
------------
L3122822              (248)    1            7.219 (   1.003) /_  -44.7

ELEMENT = "Line.LN6350536-1"
L2673312              (249)    1           7.2205 (   1.003) /_  -44.9
------------
L3235247              (250)    1           7.2203 (   1.003) /_  -44.9

ELEMENT = "Line.LN6048523-1"
M1166391              (251)    3           7.3925 (   1.027) /_   84.8
------------
L3254873              (252)    3           7.3885 (   1.026) /_   84.8

ELEMENT = "Line.LN5594152-1"
L2861157              (253)    3           7.4319 (   1.032) /_   84.9
------------
P901951               (254)    3           7.4282 (   1.032) /_   84.8

ELEMENT = "Line.LN5865248-1"
M1047346              (255)    1           7.2792 (   1.011) /_  -40.8
M1047346              (256)    2           7.2257 (   1.004) /_ -161.7
M1047346              (257)    3           7.4225 (   1.031) /_   79.8
------------
M1047345              (258)    1           7.2754 (   1.011) /_  -40.8
M1047345              (259)    2           7.2224 (   1.003) /_ -161.7
M1047345              (260)    3           7.4217 (   1.031) /_   79.8

ELEMENT = "Line.LN6046143-1"
L2989596              (261)    2           7.2754 (   1.011) /_ -165.4
------------
L2822873              (262)    2           7.2753 (   1.011) /_ -165.4

ELEMENT = "Line.LN5803287-1"
M1108328              (263)    3           7.3952 (   1.027) /_   81.5
------------
L2875754              (264)    3           7.3951 (   1.027) /_   81.5

ELEMENT = "Line.LN5589094-1"
L2786204              (265)    3           7.4943 (   1.041) /_   85.0
------------
M1209819              (266)    3           7.4901 (    1.04) /_   85.0

ELEMENT = "Line.LN5954983-1"
P901972               (267)    1           7.2302 (   1.004) /_  -44.9
------------
M1009726              (268)    1           7.2275 (   1.004) /_  -44.9

ELEMENT = "Line.LN5924696-2"
M1047702              (269)    1           7.3885 (   1.026) /_  -44.3
------------
N1137001              (270)    1           7.3885 (   1.026) /_  -44.3

ELEMENT = "Line.LN6506311-4"
L2767340              (271)    1           6.9205 (  0.9612) /_  -40.2
L2767340              (272)    2           7.0916 (   0.985) /_ -161.2
L2767340              (273)    3           7.4555 (   1.036) /_   81.8
------------
M3037449              (274)    1           6.9205 (  0.9612) /_  -40.2
M3037449              (275)    2           7.0916 (   0.985) /_ -161.2
M3037449              (276)    3           7.4555 (   1.036) /_   81.8

ELEMENT = "Line.LN5653493-1"
M1047457              (277)    2           7.1361 (  0.9912) /_ -167.2
------------
L2710546              (278)    2           7.1352 (  0.9911) /_ -167.2

ELEMENT = "Line.LN5684836-1"
L2674027              (279)    1           6.7598 (  0.9389) /_  -41.5
L2674027              (280)    2           7.0121 (   0.974) /_ -162.8
L2674027              (281)    3           7.4533 (   1.035) /_   81.2
------------
L2692633              (282)    1           6.7526 (  0.9379) /_  -41.6
L2692633              (283)    2           7.0079 (  0.9734) /_ -162.9
L2692633              (284)    3           7.4533 (   1.035) /_   81.2

ELEMENT = "Line.LN5715016-3"
N1142108              (285)    1           7.1688 (  0.9957) /_  -38.9
------------
L2674051              (286)    1           7.1687 (  0.9957) /_  -38.9

ELEMENT = "Line.LN6138614-1"
M1069135              (287)    1           7.3039 (   1.014) /_  -40.7
M1069135              (288)    2           7.2471 (   1.007) /_ -161.6
M1069135              (289)    3           7.4292 (   1.032) /_   79.9
------------
R18242                (290)    1           7.2989 (   1.014) /_  -40.8
R18242                (291)    2            7.243 (   1.006) /_ -161.6
R18242                (292)    3           7.4287 (   1.032) /_   79.8

ELEMENT = "Line.LN6077781-2"
M1047534              (293)    1           7.5054 (   1.042) /_  -44.2
M1047534              (294)    2           7.5012 (   1.042) /_ -166.2
M1047534              (295)    3           7.4581 (   1.036) /_   79.7
------------
N1136663              (296)    1           7.4839 (   1.039) /_  -44.2
N1136663              (297)    2           7.4846 (    1.04) /_ -166.3
N1136663              (298)    3           7.4461 (   1.034) /_   79.7

ELEMENT = "Line.LN5675121-1"
M1108508              (299)    3              7.5 (   1.042) /_   80.9
------------
L3097861              (300)    3              7.5 (   1.042) /_   80.9

ELEMENT = "Line.LN5773046-1"
M1069560              (301)    2           7.2713 (    1.01) /_ -165.4
------------
M1069567              ( 76)    2            7.266 (   1.009) /_ -165.4

ELEMENT = "Line.LN6380809-2"
L2973153              (302)    1           7.3993 (   1.028) /_  -44.3
L2973153              (303)    2           7.3737 (   1.024) /_ -166.6
L2973153              (304)    3           7.4181 (    1.03) /_   79.6
------------
N1136998              (305)    1           7.3987 (   1.028) /_  -44.3
N1136998              (306)    2           7.3724 (   1.024) /_ -166.6
N1136998              (307)    3           7.4182 (    1.03) /_   79.6

ELEMENT = "Line.LN6018326-1"
L2898515              (308)    3           7.4856 (    1.04) /_   83.6
------------
M1166387              (309)    3           7.4854 (    1.04) /_   83.6

ELEMENT = "Line.LN5472356-1"
M1047442              (310)    2           7.1664 (  0.9954) /_ -167.1
------------
L3235250              (311)    2           7.1663 (  0.9954) /_ -167.1

ELEMENT = "Line.LN6139641-1"
M1142871              (312)    1            7.093 (  0.9852) /_  -39.0
M1142871              (313)    2           7.1866 (  0.9982) /_ -159.5
M1142871              (314)    3           7.4601 (   1.036) /_   82.4
------------
M1142874              (315)    1           7.0877 (  0.9845) /_  -39.0
M1142874              (316)    2           7.1835 (  0.9978) /_ -159.5
M1142874              (317)    3           7.4599 (   1.036) /_   82.3

ELEMENT = "Line.LN6018341-1"
L2955081              (318)    1           7.1693 (  0.9958) /_  -39.0
L2955081              (319)    2           7.1736 (  0.9964) /_ -159.3
L2955081              (320)    3           7.4214 (   1.031) /_   81.6
------------
M1108315              (321)    1           7.1696 (  0.9958) /_  -39.0
M1108315              (322)    2           7.1709 (   0.996) /_ -159.3
M1108315              (323)    3           7.4192 (   1.031) /_   81.6

ELEMENT = "Line.LN6017302-1"
L2973162              (324)    1           7.1678 (  0.9956) /_  -40.7
L2973162              (325)    2           7.0801 (  0.9834) /_ -161.9
L2973162              (326)    3            7.412 (    1.03) /_   79.9
------------
M1026333              (327)    1           7.1672 (  0.9955) /_  -40.7
M1026333              (328)    2           7.0764 (  0.9829) /_ -161.9
M1026333              (329)    3           7.4129 (    1.03) /_   79.9

ELEMENT = "Line.LN6199505-1"
M1009832              (330)    2            7.258 (   1.008) /_ -167.3
------------
L2860479              (331)    2           7.2579 (   1.008) /_ -167.3

ELEMENT = "Line.LN5682327-1"
M1026854              (332)    1           7.3376 (   1.019) /_  -44.8
------------
P901894               (333)    1           7.3374 (   1.019) /_  -44.8

ELEMENT = "Line.LN6290243-1"
M1026485              (334)    2           7.1813 (  0.9975) /_ -161.7
------------
M1026492              (335)    2           7.1811 (  0.9974) /_ -161.7

ELEMENT = "Line.X8223_48332_SW"
D6413567-3_INT        (336)    1           7.4032 (   1.028) /_  -40.3
D6413567-3_INT        (337)    2           7.3718 (   1.024) /_ -160.8
D6413567-3_INT        (338)    3           7.4291 (   1.032) /_   80.3
------------
E182724               (339)    1           7.4032 (   1.028) /_  -40.3
E182724               (340)    2           7.3717 (   1.024) /_ -160.8
E182724               (341)    3           7.4291 (   1.032) /_   80.3

ELEMENT = "Line.LN6413567-3"
N1139541              (342)    1           7.4052 (   1.029) /_  -40.3
N1139541              (343)    2           7.3735 (   1.024) /_ -160.8
N1139541              (344)    3           7.4292 (   1.032) /_   80.3
------------
D6413567-3_INT        (336)    1           7.4032 (   1.028) /_  -40.3
D6413567-3_INT        (337)    2           7.3718 (   1.024) /_ -160.8
...